Version 4
SHEET 1 880 680
WIRE -560 -80 -720 -80
WIRE -464 -80 -560 -80
WIRE -720 -64 -720 -80
WIRE -464 -32 -464 -80
WIRE -32 16 -400 16
WIRE -720 32 -720 16
WIRE -720 32 -784 32
WIRE -288 64 -384 64
WIRE -192 64 -208 64
WIRE -592 80 -720 80
WIRE -400 80 -400 16
WIRE -400 80 -592 80
WIRE -336 80 -400 80
WIRE 0 80 -80 80
WIRE -720 96 -720 80
WIRE -336 112 -336 80
WIRE -592 128 -592 80
WIRE -576 128 -592 128
WIRE -464 128 -464 48
WIRE -464 128 -496 128
WIRE -384 128 -384 64
WIRE -384 128 -464 128
WIRE -368 128 -384 128
WIRE -32 128 -32 16
WIRE -240 144 -304 144
WIRE -192 144 -192 64
WIRE -192 144 -240 144
WIRE -176 144 -192 144
WIRE -80 144 -80 80
WIRE -80 144 -96 144
WIRE -64 144 -80 144
WIRE -368 160 -400 160
WIRE 80 160 80 80
WIRE 80 160 0 160
WIRE 224 160 80 160
WIRE -64 176 -80 176
WIRE -784 192 -784 32
WIRE -720 192 -720 176
WIRE -720 192 -784 192
WIRE -592 192 -720 192
WIRE -400 192 -400 160
WIRE -400 192 -592 192
WIRE -80 192 -80 176
WIRE -80 192 -400 192
WIRE -592 224 -592 192
WIRE -720 288 -720 272
WIRE -336 288 -336 176
WIRE -336 288 -720 288
WIRE -32 288 -32 192
WIRE -32 288 -336 288
FLAG -592 224 0
FLAG -560 -80 Input
FLAG -240 144 S1_out
FLAG 224 160 S2_out
SYMBOL voltage -720 80 R0
WINDOW 3 33 80 Left 2
SYMATTR Value 5V
SYMATTR InstName Vs+
SYMBOL Opamps\\AD8031 -336 80 R0
SYMATTR InstName U1
SYMBOL res -304 80 R270
WINDOW 0 32 56 VTop 2
WINDOW 3 0 56 VBottom 2
SYMATTR InstName Rf
SYMATTR Value 5k
SYMBOL res -480 112 R90
WINDOW 0 0 56 VBottom 2
WINDOW 3 32 56 VTop 2
SYMATTR InstName R1
SYMATTR Value 10k
SYMBOL voltage -720 -80 R0
WINDOW 123 44 57 Left 2
WINDOW 39 0 0 Left 2
SYMATTR Value2 AC 5 0
SYMATTR InstName Vin
SYMATTR Value SINE(0 5 1)
SYMBOL res -480 -48 R0
SYMATTR InstName R2
SYMATTR Value 10k
SYMBOL voltage -720 176 R0
WINDOW 0 38 41 Left 2
SYMATTR InstName Vs-
SYMATTR Value 5V
SYMBOL res -80 128 R90
WINDOW 0 0 56 VBottom 2
WINDOW 3 32 56 VTop 2
SYMATTR InstName R1-2
SYMATTR Value 10k
SYMBOL Opamps\\AD8031 -32 96 R0
SYMATTR InstName U2
SYMBOL res -16 96 R270
WINDOW 0 32 56 VTop 2
WINDOW 3 0 56 VBottom 2
SYMATTR InstName Rf-2
SYMATTR Value 10k
TEXT -296 -88 Left 2 !.tran 10
